1015.6  298.155 15.9
50 298.15579352491795 15.825015439873674 -6.414258294858722 -1.7147163720254763
60 298.1521861276413 15.75063293189496 -6.816741953473045 -1.802758207013584
70 298.15560013523526 15.698801169784748 -7.183519666838334 -1.8895604829267614
80 298.15564684339097 15.669997071985794 -7.483237031363434 -1.9702106071844838
90 298.15927139056726 15.650119679927771 -7.739187425843857 -2.0506472555374535
100 298.1640653312206 15.625401841043471 -7.918541949369683 -2.09427332267569
110 298.1643330182216 15.603501231748279 -8.076933376837609 -2.125479533105354
120 298.16768904465897 15.591555606509518 -8.184134989833602 -2.144782117114161
130 298.1700658798218 15.57690235169061 -8.277739855079828 -2.172422085145654
140 298.1692246414686 15.570404628726921 -8.348185145239315 -2.1800837510693905
150 298.1716137626926 15.561329791906829 -8.398087442839513 -2.1875127399915066
160 298.17453970075985 15.554832928037536 -8.430674800670058 -2.187628837276361
170 298.1756398105973 15.553546517283218 -8.445192602287799 -2.182363197388732
180 298.1788172595114 15.547813007402063 -8.461737541814772 -2.1786307032953345
190 298.18154871193093 15.546751776222814 -8.467720535156621 -2.1649957393147186
200 298.1845911174312 15.540166331910397 -8.481585635091253 -2.1581771943910186
210 298.18777161740314 15.527106581576728 -8.492606787656433 -2.1532683730939706
220 298.18597598620704 15.522505849406004 -8.514854680657704 -2.1604017062761067
230 298.18775386423107 15.511791986836988 -8.521396765681041 -2.1538725221909365
240 298.1906451576634 15.50486264784877 -8.524186217131321 -2.1438670086298597
250 298.19741066981646 15.4952286143113 -8.545110212345556 -2.149517004417857
260 298.20374267683906 15.481921997387525 -8.548290316641744 -2.143768614676153
270 298.2084535683963 15.470377182728845 -8.55828290185619 -2.122491374586651
280 298.2130923844359 15.463488371414119 -8.570864738736107 -2.120917537288926
290 298.2165470868096 15.452612995134343 -8.579553815778123 -2.112206321491319
300 298.2181393653908 15.436268639887503 -8.585418479074214 -2.1008462750264183
310 298.2205653366038 15.433323850862484 -8.594382110322798 -2.0915409907683835
320 298.22622127643945 15.421424406152777 -8.597306660038178 -2.081359792122941
330 298.23265607849623 15.410673145746774 -8.60659106546197 -2.078958336008551
340 298.23536633230566 15.3948693632201 -8.61334355688526 -2.0707760177156294
350 298.240806666997 15.377987120987955 -8.62140883273657 -2.0634753657081935
360 298.24646477294124 15.36537318934278 -8.630043131901937 -2.0540986213653527
370 298.2505953656949 15.352274375809078 -8.642481445418142 -2.049633043263168
380 298.25658767020656 15.336911841285572 -8.657465420464272 -2.0357538367987345
390 298.26137682001115 15.315363882981947 -8.671615503114529 -2.03073004150864
400 298.2679840186176 15.293531033440534 -8.686356326208214 -2.0215611197273717
410 298.2763134755828 15.271505425420134 -8.696682569865335 -2.0093163400454923
420 298.28364445987984 15.255139730896506 -8.712357310307459 -2.0044066535800655
430 298.28987817149743 15.238183614868095 -8.731738406758794 -1.9995462890068334
440 298.2968462903353 15.212896758046307 -8.748947740736966 -1.9911315690249345
450 298.3055567107362 15.189136138901247 -8.757434065186255 -1.975274492689371
460 298.31509334788603 15.162737818181128 -8.770744471772044 -1.9629661254897057
470 298.3253967619989 15.132453204921987 -8.78182892963804 -1.9566596797017854
480 298.3340984645251 15.097550503991439 -8.802763395145199 -1.9489059682505077
490 298.34413627077856 15.06655913886992 -8.811981098616142 -1.9373813799629205
500 298.3543191834207 15.035746014372634 -8.82822257687758 -1.931766995619049
510 298.36636127273334 15.003050471177167 -8.836463265908302 -1.922504441205321
520 298.376339440379 14.973639488690935 -8.843581645618936 -1.9086834472102003
530 298.3893826773069 14.941039325186566 -8.848844884016767 -1.8996842803634495
540 298.4032346793268 14.897635125417377 -8.855223152412236 -1.8934838436950585
550 298.4188660420908 14.849609066068954 -8.868500420862468 -1.8847169494252787
560 298.43498505061876 14.808029313966555 -8.876308326016773 -1.8777216675516235
570 298.45116327288696 14.766022774143732 -8.884176100087789 -1.8709250113729405
580 298.4694652776945 14.715245217637127 -8.889520115790145 -1.866812260180686
590 298.48934899164504 14.661052502345749 -8.895185051752396 -1.865764897583639
600 298.5111315722134 14.607282998780923 -8.895873265971293 -1.859830766035823
610 298.5343564283402 14.547257170444745 -8.896421471654778 -1.8528703092038916
620 298.5571900345186 14.48850227957758 -8.90275828216387 -1.8464594328265231
630 298.5803535490435 14.42485803413212 -8.89882731260909 -1.837518726894101
640 298.60184060299036 14.370096971744486 -8.898277922832605 -1.8322710787257441
650 298.6253376570188 14.309954739202393 -8.902715251943905 -1.8185496381297144
660 298.65025088904036 14.246506842629595 -8.907593742991393 -1.8089383899014584
670 298.6765078579087 14.184557150987777 -8.911437351391259 -1.7972165538357145
680 298.7042569518538 14.120418986983376 -8.909673733626926 -1.7853376990567158
690 298.7324183211122 14.04547437923548 -8.90616108209544 -1.7762711235614803
700 298.76310126034394 13.974772478815622 -8.902226344086062 -1.767268291865671
710 298.7933355324277 13.901586637174391 -8.899990494019084 -1.7556832815398382
720 298.8224377824587 13.829764732361195 -8.889766298691075 -1.7397399149523276
730 298.8530300103345 13.760066072108934 -8.885121990398652 -1.727152808514772
740 298.8848747463923 13.687779368458099 -8.879979403093625 -1.7125154121961732
750 298.9177918025831 13.618093335778195 -8.868979795580024 -1.6960703583435264
760 298.9496903338075 13.549236977110418 -8.853417403227148 -1.685760785454266
770 298.98233915451806 13.48254606486271 -8.8461284030375 -1.667753195927115
780 299.0172687959389 13.403032602542995 -8.832190056877023 -1.651878371365994
790 299.0530772688826 13.333918541746506 -8.815911760035704 -1.636660309199107
800 299.08715538785026 13.269545437897087 -8.794535391840988 -1.619558224523598
810 299.1237337455637 13.196658197462135 -8.780475875972646 -1.6027125313453607
820 299.1617324604708 13.128211956304789 -8.763628721324837 -1.5877846571988972
830 299.19949474865314 13.0544011188022 -8.753326789744602 -1.5800645408189227
840 299.23515178063707 12.990216916905105 -8.735234127178973 -1.5682689474054885
850 299.271159641238 12.936438268897225 -8.716591159183613 -1.5513776223936602
860 299.30839206667713 12.87385944921657 -8.696641362627057 -1.5374781150309655
870 299.34787058430874 12.807813392418156 -8.667556012558052 -1.521409911242431
880 299.38612696181895 12.749716262575854 -8.641860453476912 -1.5047484048602284
890 299.4247287040533 12.693631109461363 -8.61901746207285 -1.4919368996358868
900 299.46195548237233 12.631262787430092 -8.59438851678717 -1.4791884485314992
910 299.5000401151353 12.571517812385398 -8.57076813895964 -1.467306322534231
920 299.5397052227029 12.507971079734487 -8.551644269153423 -1.458286853438705
930 299.5814393411905 12.448762653068174 -8.52491935822131 -1.4440113578338027
940 299.6200748680302 12.385993107569698 -8.498806783690252 -1.428582371895243
950 299.65981470817104 12.334134020920922 -8.464848313201488 -1.4109635318680438
960 299.6997684396428 12.28177822477622 -8.439150541648269 -1.395410986420139
970 299.7376154757094 12.23474899509312 -8.412696148087566 -1.3815539873388445
980 299.77437093888204 12.194559607862066 -8.385164113464397 -1.368272059309382
990 299.80820996899956 12.15030366953553 -8.357963349370436 -1.3616521629078673
1000 299.8451224597124 12.0981864998138 -8.334515124521989 -1.3523589286196929
1010 299.8853788861237 12.049550813214214 -8.306606425955849 -1.3401379775828142
1020 299.9263468424479 12.007861551752804 -8.277505123709867 -1.3287054699718006
1030 299.96361952729757 11.96974460679574 -8.251013283237478 -1.3174266791805678
1040 300.0037827816023 11.932023088326156 -8.217288186390721 -1.3103614736853413
1050 300.03730791389347 11.898560995965914 -8.176012989294929 -1.29676824668839
1060 300.0754755550491 11.862558515557222 -8.13994535399922 -1.2888336865936216
1070 300.1141919163295 11.82233999967689 -8.107830621149015 -1.2783830935662057
1080 300.1499849873556 11.78119458681725 -8.079134686143536 -1.2691749899952474
1090 300.18730596902105 11.743030081711249 -8.04319072168246 -1.2605824005983086
1100 300.2254220492126 11.699210366728813 -8.017046276122269 -1.2526076534036998
1110 300.26002001034783 11.657796641576203 -7.976073194755537 -1.2462819805055831
1120 300.2972289606189 11.615800757637803 -7.943674501223322 -1.2340277827754147
1130 300.33533716235576 11.579303251757294 -7.910613169589126 -1.225305240321017
1140 300.36902582797165 11.539453305517409 -7.853997629159575 -1.211644181527587
1150 300.4115436991 11.498703045857495 -7.818333128347903 -1.1998651774207318
1160 300.45311008653005 11.455116455845356 -7.7829181722590075 -1.1878878270219877
1170 300.49453743960186 11.413542750839957 -7.752414890652393 -1.1814673565415699
1180 300.5346388715951 11.378552461653504 -7.719058604650206 -1.1707743284359557
1190 300.57580861043897 11.341952597844045 -7.682342578159128 -1.1587754115352291
1200 300.6178294229541 11.30230630121857 -7.650011068414923 -1.1485392327027326
1210 300.66035805285816 11.259843322958972 -7.615931504076561 -1.1411402933304464
1220 300.70367590452213 11.22112045370613 -7.584236770224699 -1.1273358604011507
1230 300.74568543253065 11.184202700629104 -7.553814822838712 -1.1129841293630378
1240 300.7855072986552 11.144051604182737 -7.527332131175846 -1.1006305977248922
1250 300.82688944527274 11.101226925649497 -7.496026018880523 -1.0879830291857309
1260 300.8675052468819 11.061596909568959 -7.464901380749744 -1.0746792681900106
1270 300.91151133754795 11.022885806683941 -7.433363836280886 -1.0622887828029572
1280 300.9537169339364 10.98059100727627 -7.4021236648612385 -1.0506436387542144
1290 300.9977614017955 10.938811366204718 -7.372113415687554 -1.0395211293179774
1300 301.0418249930881 10.897847790842231 -7.338946344063135 -1.0306347404160245
1310 301.08569008734315 10.858377906431251 -7.309576791323536 -1.0189144442525404
1320 301.13001768395344 10.817106290268455 -7.281029097557058 -1.0063584642339571
1330 301.17541439838556 10.776559392434091 -7.252648953412684 -0.9961826641574678
1340 301.22009559241604 10.738593567924738 -7.223995082568542 -0.9836982104727261
1350 301.26353171624197 10.700843418921032 -7.194641629852662 -0.9699842606497552
1360 301.30719295048215 10.66537301066543 -7.158136691646187 -0.9552082107663442
1370 301.35327297824244 10.623393970827332 -7.127789829466061 -0.9408597819991383
1380 301.399985296076 10.57941795510623 -7.099076329971276 -0.9269317982307346
1390 301.44382579704836 10.54287142622846 -7.077387305498332 -0.9152422974481905
1400 301.48858230985354 10.50675538321 -7.050101893742671 -0.9040246362463996
1410 301.5361940609167 10.460331320356053 -7.023496443140633 -0.8940027321605921
1420 301.5847691310027 10.411952662024357 -6.9962856994800955 -0.8849477277390714
1430 301.63139948498605 10.367966959040732 -6.9632898005689485 -0.8764233177357031
1440 301.6787794476527 10.32503654209022 -6.938175418180368 -0.8699199172385466
1450 301.7280983598994 10.28465437969065 -6.9084794098728715 -0.8613122149667872
1460 301.77607869239773 10.241802747435358 -6.880550360967785 -0.8527108457207173
1470 301.82242073658193 10.203323368519465 -6.858673679496455 -0.847808476253724
1480 301.8726035748363 10.155185657111785 -6.8313323168303235 -0.8399926151558699
1490 301.92179910871715 10.106423974912206 -6.804562158023234 -0.8318342983339658
1500 301.97083827124703 10.059552323422531 -6.7769926040314745 -0.8247569250408925
1510 302.0208372539944 10.009637500033495 -6.750416541492816 -0.8180029362562601
1520 302.0736774232652 9.960418732987105 -6.723784753566682 -0.810655127219187
1530 302.12459996541344 9.912570533964738 -6.697729676469342 -0.8032302907711801
1540 302.17646130455864 9.86961446876201 -6.670226413671 -0.7914734466262758
1550 302.2281577428182 9.826044563409322 -6.644551465447997 -0.7817618664049915
1560 302.28128957550007 9.777523676580495 -6.6060231828023275 -0.7687337445402815
1570 302.3321418867877 9.735540237077092 -6.579549942848098 -0.7598206021313267
1580 302.38433994282644 9.69110501977097 -6.5566325757282256 -0.7492717335940218
1590 302.43617999866956 9.650568892999031 -6.5339061474368165 -0.7408210073698887
1600 302.4886716892775 9.611248743638185 -6.51082253298075 -0.7334718327943398
1610 302.5419837666745 9.569238780327105 -6.489070629633203 -0.7266663294159997
1620 302.59638113863406 9.528603579988118 -6.467152109827547 -0.7210445411990289
1630 302.64985195916523 9.482599744504508 -6.44770117234813 -0.7174316237784525
1640 302.70372589511487 9.433985220749772 -6.42762434993674 -0.7116066485930397
1650 302.75508682387687 9.384558562951355 -6.4084742940079265 -0.7063053140500051
1660 302.80953950067527 9.328068387571145 -6.381016057148915 -0.7012288733450927
1670 302.86846364759543 9.274814575343427 -6.3612203739955895 -0.6943531301376173
1680 302.9301990947474 9.21257232073733 -6.34150561655183 -0.6867910013370231
1690 302.992140916123 9.153418730019279 -6.32437858481774 -0.6797863830243277
1700 303.05563423659777 9.0947597522555 -6.310585395651087 -0.6756275398906875
1710 303.1230922219847 9.029527449148736 -6.29049723805361 -0.6657151289147664
1720 303.18516833563075 8.973078071203163 -6.275809222919434 -0.6574513164848189
1730 303.2449423232415 8.915451510274195 -6.257937075878746 -0.6465814816411841
1740 303.3102036516008 8.85189168992733 -6.240118958203731 -0.636877717925757
1750 303.37083291974807 8.788582430256335 -6.224563505407295 -0.6275787375521155
1760 303.4348158735188 8.725973713049296 -6.205101281176884 -0.6177969522534202
1770 303.5045272962921 8.669098344815422 -6.186029142655422 -0.607276167124826
1780 303.57424293847055 8.609626907558425 -6.168032591036982 -0.5966500811932279
1790 303.64196332426286 8.55120630807195 -6.150359913779599 -0.5877424478658237
1800 303.712495588424 8.484190211053589 -6.131696579685315 -0.5792248797653973
1810 303.7814351316187 8.417002895344748 -6.111977789053101 -0.5706361665445366
1820 303.84739020680695 8.360063087577005 -6.101733356716164 -0.5611896309478182
1830 303.916293889447 8.298413532724268 -6.075137809269794 -0.5528575623730095
1840 303.9852435531877 8.237167183386855 -6.047140225465935 -0.5458286176038036
1850 304.0591979980469 8.16995809359596 -6.027669226284751 -0.538584937348324
1860 304.13428585786284 8.101410621924906 -6.010419744909034 -0.5344127549986685
1870 304.20909139469245 8.0363244216891 -5.990566615039475 -0.5296047571950966
1880 304.28230925327915 7.971579216489073 -5.97128113392546 -0.5279598752001997
1890 304.35913789069156 7.896196931600904 -5.950361426609682 -0.5260158375162846
1900 304.4320402203814 7.82177643120611 -5.933022874696085 -0.52521307274998
1910 304.5065108183049 7.750999031135441 -5.914528617754803 -0.5234356375522645
1920 304.582295126295 7.6805122298225275 -5.899068895154055 -0.5211936432785973
1930 304.66272477473916 7.60494560703909 -5.879947795388038 -0.5232767306765641
1940 304.7441532766032 7.527254005359322 -5.861063117829471 -0.5259505733809501
1950 304.82342186519446 7.450366096766573 -5.842620459879465 -0.5290538015331321
1960 304.90210557162476 7.3840814752189665 -5.824339068089428 -0.5304897312095705
1970 304.98340228076205 7.31491507504589 -5.8063148707207 -0.5315016968249462
1980 305.06306901052744 7.250248581967214 -5.788540474145507 -0.5331896549090108
1990 305.14155810247723 7.181801633918534 -5.76949933352391 -0.5350313159255349
2000 305.2200989226568 7.109111512799467 -5.74979703809971 -0.5382831201513487
2010 305.3032896911206 7.031561387808357 -5.725600277888827 -0.5401575514169356
2020 305.3867550389296 6.944216051695419 -5.7061851814855205 -0.5445712223041475
2030 305.47287846779335 6.8551897108368935 -5.686307261442104 -0.5477930700078533
2040 305.5574539080769 6.770916655519063 -5.666112467157766 -0.5508647082765836
2050 305.6382095440715 6.69498720052652 -5.646072770167338 -0.5534267441937624
2060 305.71668065908005 6.623812230013817 -5.625971135539564 -0.5552122143129152
2070 305.79552934284845 6.553536647493584 -5.604188626614331 -0.5547677980020911
2080 305.87461240811166 6.474934219358413 -5.589521156883083 -0.5526775617402706
2090 305.9515405513766 6.418556171921419 -5.569341414189045 -0.5532519337420232
2100 306.02770604789663 6.360963672372098 -5.550737748624039 -0.5556892661636101
2110 306.1076565189685 6.289368955327485 -5.532141027858534 -0.5628081091778333
2120 306.1865897071968 6.218995342576042 -5.508397645230181 -0.566898316446421
2130 306.2693671585342 6.141597789569295 -5.482978527779067 -0.5705198568751296
2140 306.35251944849045 6.0624990128418075 -5.44207994524075 -0.5642553101353532
2150 306.43464134087 5.99203812504944 -5.416799124257523 -0.5667987776136927
2160 306.5172245762712 5.93089351107714 -5.392227409426477 -0.5676962280674122
2170 306.59569388914525 5.87075657631164 -5.3792765504886555 -0.5758091378489476
2180 306.6706008807893 5.8141231919426986 -5.357879324964705 -0.5786312866135959
2190 306.7481573411996 5.754922398830469 -5.332307907242991 -0.5817279335678066
2200 306.8232446445986 5.697578348707849 -5.30622005903462 -0.583767833937733
2210 306.8949446620089 5.6457521379275715 -5.27908030521535 -0.5849086228410824
2220 306.9660034799124 5.594246343006415 -5.252302755344722 -0.5871008181603531
2230 307.0361641141674 5.550262333454192 -5.2224176756635075 -0.5914929949553547
2240 307.1135711669922 5.491234940317713 -5.19933207484081 -0.5963075231043017
2250 307.1904449050491 5.434087218662053 -5.1756881761222315 -0.6022265897798947
2260 307.2660138310613 5.378028330190041 -5.15237688145442 -0.608515391088245
2270 307.3433735821698 5.321048638914045 -5.129813011601371 -0.6152647686747048
2280 307.4176378784592 5.267658031906426 -5.1017384833765895 -0.6175861892738825
2290 307.49066765866996 5.215051547181815 -5.0775996657524445 -0.6238920553303822
2300 307.56352649098875 5.165864980405904 -5.05348769292369 -0.6310248969554244
2310 307.6361228541324 5.11486163040236 -5.027633271627481 -0.6420425148825735
2320 307.70664986264205 5.060973474428602 -5.002908005773913 -0.6509792461293212
2330 307.77956648812443 5.005112402948598 -4.978491311503451 -0.6609701388901482
2340 307.85148863592934 4.9491390528887695 -4.953829013934694 -0.6699724389995979
2350 307.9243759587709 4.88514894210299 -4.928160873221716 -0.6780446290122962
2360 307.99744658621273 4.822308830014101 -4.904057735205704 -0.6847515947405772
2370 308.0701148868491 4.766134828240569 -4.878453516972683 -0.6943070097477568
2380 308.141437924077 4.713709350850512 -4.853224533958092 -0.7044483990146526
2390 308.21161750901496 4.653661451929861 -4.8280456466247665 -0.7161380795316746
2400 308.2850590999755 4.596686088969285 -4.803510354908165 -0.7283489103778501
2410 308.3568493668806 4.545674777407712 -4.7800189130810455 -0.7403755550431131
2420 308.4283530700889 4.494015615038826 -4.758766869119992 -0.7541511844743639
2430 308.4974202268453 4.442492501514198 -4.735637494347484 -0.7634791594028856
2440 308.5684132380116 4.392930861467675 -4.713640422770938 -0.7716355476938571
2450 308.63915569677897 4.347696890692555 -4.690488770116462 -0.7790688223623768
2460 308.7080508248172 4.304098346508884 -4.66693508893171 -0.7854627738889133
2470 308.77481878518256 4.263762131897625 -4.643254658463694 -0.792352403203175
2480 308.8401258269544 4.2346324147103225 -4.619151008522607 -0.7971187460408439
2490 308.90568839436025 4.201325505017398 -4.594536735868212 -0.8008016233084857
2500 308.97356892081626 4.157671010335972 -4.570637360521857 -0.8047473082752828
2510 309.0417074800742 4.116874841020653 -4.5475465205510455 -0.8085208937320569
2520 309.11011231290775 4.076033008450109 -4.524545459175425 -0.8115422916754939
2530 309.1746334191525 4.040608655555204 -4.5008818616285575 -0.8153842590099161
2540 309.23965912379 4.001095381907851 -4.477010637166057 -0.8204814450860567
2550 309.30222112482244 3.9639699899960985 -4.4533565871168665 -0.8251089886369437
2560 309.3656461259733 3.9269446616137222 -4.429980399321316 -0.8293461152524424
2570 309.42987424291744 3.890750937594441 -4.405972721273213 -0.8338449697958195
2580 309.49556671039824 3.8560507546510046 -4.380318504060002 -0.8375002121244584
2590 309.5594285342027 3.823889398371993 -4.35381379667902 -0.8403457970318056
2600 309.62123094552294 3.7930212219748136 -4.32723714096576 -0.8426634173644845
2610 309.684105607414 3.764938747596095 -4.300198514759289 -0.8443636980877381
2620 309.74444951792907 3.7427051000256752 -4.273232323342221 -0.8470050609583523
2630 309.8042694543605 3.724218179859228 -4.245817602225231 -0.8498135722913941
2640 309.86525036235264 3.6993856781166787 -4.216718977033864 -0.8590437876984083
2650 309.9272235801096 3.6658443925652255 -4.190002118168911 -0.8630518057621919
2660 309.989283247231 3.6281825177341354 -4.1711674928392535 -0.8718187585836564
2670 310.0514151917119 3.598097997880244 -4.146571369942206 -0.8760524483992684
2680 310.1129399819051 3.5745180668167986 -4.123363681080529 -0.8791521572602554
2690 310.1746374249378 3.548810098068969 -4.100786347402207 -0.8806463992183973
2700 310.23601534544343 3.5270994937507107 -4.08925624029736 -0.8843620850663454
2710 310.2959899287483 3.5093614193628637 -4.070167371919786 -0.8845310046553913
2720 310.35454298185823 3.479970917322569 -4.0544701817735005 -0.8855458747844361
2730 310.4123212571112 3.457491092081324 -4.036944203175577 -0.8891157258438601
2740 310.4702340221341 3.436137388637737 -4.023077898640336 -0.8918978268209853
2750 310.53197919012075 3.4154385715126594 -4.004793873327623 -0.9008565727819724
2760 310.59216220640945 3.3916324318214293 -3.9876216688673436 -0.9038240247280418
2770 310.6505189338255 3.369433157325081 -3.9690855035327313 -0.9033097282038897
2780 310.70544447911647 3.3511683049987444 -3.951196906168104 -0.9009484997700139
2790 310.76119833529475 3.3332499641334796 -3.934350063313476 -0.8984238748177035
2800 310.8174717471043 3.317475912185187 -3.9186826958261576 -0.894144983608551
2810 310.8737106118701 3.2992707181143355 -3.9038916804601804 -0.8903519578574736
2820 310.931921214904 3.2770913243325834 -3.889159217570102 -0.8872330938913404
2830 310.99391524082216 3.2537375796536883 -3.874170364436483 -0.883518237900208
2840 311.0546481666872 3.2311466459058718 -3.8582339552994718 -0.8808347393592109
2850 311.1148201786481 3.2119539347872594 -3.8419768788746333 -0.8786295929880859
2860 311.1712836503343 3.197282566842196 -3.825926509908787 -0.8754916095174223
2870 311.22752316963255 3.1848909924031097 -3.809483134217018 -0.87316122623608
2880 311.2819925057664 3.1682121023639493 -3.788512654487678 -0.8750003397639493
2890 311.3377043491394 3.1440550140349135 -3.77350746095431 -0.874838319620075
2900 311.39330026533327 3.121292573752152 -3.7532307241898737 -0.8768468169273547
2910 311.4480706308803 3.1025972607915087 -3.740597947662908 -0.8778239037805257
2920 311.50260895654327 3.0898308751230346 -3.726566262966302 -0.8785349018829537
2930 311.5582082562019 3.0771857965696237 -3.705090118780397 -0.8798920780647348
2940 311.61299754274256 3.06434375828132 -3.6886127130478705 -0.8818886014313501
2950 311.6681530190152 3.0467121934367487 -3.668225737043575 -0.8827480082989545
2960 311.7230661857886 3.0354704190661868 -3.652806515292258 -0.884912034971077
2970 311.7783150255082 3.020796730262751 -3.637960123287001 -0.8859766973247408
2980 311.83326036332045 3.008530892154796 -3.6239658458438084 -0.8858691848508213
2990 311.88658155358354 2.9992574613719394 -3.6122387385364596 -0.8858924460830948
3000 311.9408601588629 2.983143990116964 -3.601560278534389 -0.8852795760136335
3010 311.9978583192347 2.9660959124612694 -3.5906879449973816 -0.8844817370854493
3020 312.0523514457371 2.953354246313185 -3.5799593341974356 -0.884411956200684
3030 312.1073491227268 2.9347918154137824 -3.5700349598344814 -0.8844612931467017
3040 312.1626230501411 2.9201223681853987 -3.560896687554633 -0.8844111054513804
3050 312.21641193736684 2.9034017495364144 -3.5502267939932395 -0.8888841989556415
3060 312.2721000676483 2.8830251931644715 -3.538632371028764 -0.891852297654624
3070 312.32990229727034 2.862289878629726 -3.5306676066912197 -0.8959498069583114
3080 312.38602550967823 2.843901133108701 -3.5217100446109955 -0.8994923529335711
3090 312.44219077804047 2.8250635630259224 -3.514558495573592 -0.9031646001679882
3100 312.49672552706323 2.808381712178295 -3.506012517983552 -0.9062968187057866
3110 312.55155218069604 2.788813197318117 -3.4983977175136443 -0.9064444434722798
3120 312.6067128968223 2.771152831626711 -3.490609552271527 -0.9091321052252878
3130 312.66292829392506 2.754806421737657 -3.48388745867641 -0.9122731217448818
3140 312.71916764437077 2.7388852439683826 -3.4767600759620083 -0.9159073254724827
3150 312.7745703198389 2.721807269578988 -3.468324358837879 -0.9193804845438908
3160 312.8290158401112 2.705590433316655 -3.4590959654839697 -0.923258532737163
3170 312.88276602032187 2.6849719313430587 -3.4489525182966467 -0.9271023243328169
3180 312.9361213678986 2.667562962120308 -3.4397537540811216 -0.9296479008832459
3190 312.9905859081444 2.653794264693616 -3.4320322536522734 -0.9303069001890332
3200 313.04542632220824 2.6413367101386314 -3.426116516289845 -0.9298225783036659
3210 313.09801475509613 2.6263451945181138 -3.4211112960666767 -0.9285573368585018
3220 313.1507975260417 2.6103520057810945 -3.415891450339922 -0.9271741154309887
3230 313.20351228987926 2.599634788958455 -3.4123600818266806 -0.9267383411603248
3240 313.2556648126983 2.593306698670611 -3.409886169635797 -0.9274522035923355
3250 313.3061339761228 2.5818201420792053 -3.4088618858279847 -0.928123543054903
3260 313.3584709294892 2.563817876847496 -3.4073492408967607 -0.9288040239843633
3270 313.4085413258157 2.549430336316053 -3.4054341285664513 -0.9295305127121708
3280 313.45882196114235 2.5414117989075025 -3.4055376656540988 -0.9313303597220657
3290 313.50976756165323 2.5301595697217065 -3.4039754961667295 -0.9304319295163372
3300 313.5613758237504 2.5168705955069184 -3.404554843686946 -0.9328512640007586
3310 313.6126829260735 2.5060990602053956 -3.4051529868368386 -0.9348422886931881
3320 313.6665907702449 2.4960673457434632 -3.405002499618661 -0.9373421567323423
3330 313.71716750966124 2.489413557649656 -3.4056380570434883 -0.9402956495144336
3340 313.7663965014991 2.4791597036718382 -3.4065976581626476 -0.9421495329880862
3350 313.8165991814358 2.4694274826796607 -3.406876782075527 -0.9428160222113638
3360 313.866126744048 2.459303431611532 -3.4067956254669878 -0.9423392722386267
3370 313.9172333925664 2.4496474237391457 -3.407093471967484 -0.9411096198149901
3380 313.96875020385824 2.4393289376857434 -3.40740793920919 -0.939994579097426
3390 314.01968391943393 2.4271675972264273 -3.408051376629483 -0.9384573037157948
3400 314.0690563255417 2.4181129795515752 -3.4082383842263746 -0.9363696871444133
3410 314.11984654530414 2.406780017510673 -3.4080446904712676 -0.9343742134633956
3420 314.16860794750306 2.4009103412242556 -3.4083633239368516 -0.9308812017080643
3430 314.2165910952559 2.3920137398642813 -3.4045889820712403 -0.92418423227686
3440 314.2668836565616 2.381178926064087 -3.4031365106301688 -0.9191841348519425
3450 314.31874695639107 2.371461227900719 -3.4011228889475826 -0.9149327586190419
3460 314.3720754666704 2.359096902132079 -3.3971418183925297 -0.9114913216435696
3470 314.4236129944092 2.346604765701308 -3.393013901238365 -0.9096471719518129
3480 314.47318221984784 2.337482294716739 -3.3883892060238754 -0.9078813927671268
3490 314.52288767428837 2.325800628863407 -3.383291656321938 -0.9049293248084049
3500 314.5742118280677 2.315622862405226 -3.3757245646275944 -0.9034983215700017
